 
    CNRS - NERC - Met OFFICE - MERCATOR-ocean - INGV - CMCC
                        NEMO team
             Ocean General Circulation Model
                 NEMO version 4.0  (2019) 
 
            ._      ._      ._      ._      ._    
        _.-._)`\_.-._)`\_.-._)`\_.-._)`\_.-._)`\_ 
 
            o         _,           _,             
             o      .' (        .-' /             
            o     _/..._'.    .'   /              
       (    o .-'`      ` '-./  _.'               
        )    ( o)           ;= <_         (       
       (      '-.,\\__ __.-;`\   '.        )      
        )  )       \) |`\ \)  '.   \      (   (   
       (  (           \_/       '-._\      )   )  
        )  ) jgs                     `    (   (   
      ^^^^^^^^^^^^^^^^^^^^^^^^^^^^^^^^^^^^^^^^^^^ 
 
  mynode : mpi initialisation
  ~~~~~~
     Namelist nammpp
        mpi send type          cn_mpi_send = I
        size exported buffer   nn_buffer   =            0 bytes
        jpni and jpnj will be calculated automatically
        avoid use of mpi_allgather at the north fold  ln_nnogather =  T
             Immediate non-blocking send (isend)
 
 
  domain_cfg : domain size read in ORCA_R2_zps_domcfg file
  ~~~~~~~~~~
     .
     ==>>>   ORCA configuration
     .
        cn_cfg = ORCA   nn_cfg =            2
        jpiglo =          182
        jpjglo =          149
        jpkglo =           31
        type of global domain lateral boundary   jperio =            4

AAAAAAAA

                     iom_nf90_open ~~~ open existing file: ORCA_R2_zps_domcfg.nc
  in READ mode
                    ---> ORCA_R2_zps_domcfg.nc OK
 mpp_init: You use an optimal domain decomposition
 ~~~~~~~~ 
   Number of mpi processes:    38
   Number of ocean subdomains =    38
   Number of suppressed land subdomains =     2
 
                     iom_close ~~~ close file: ORCA_R2_zps_domcfg.nc ok
 
 MPI Message Passing MPI - domain lay out over processors
 
    defines mpp subdomains
       jpni =           10
       jpnj =            4
 
       sum ilci(i,1) =          200  jpiglo =          182
       sum ilcj(1,j) =          155  jpjglo =          149
 
           ****************************************************************
           *              *               *               *               *   
         4 *   20  x 38   *    20  x 38   *    20  x 38   *    20  x 38   *   
           *         -1   *          30   *          31   *          32   *         
           *              *               *               *               *   
           ****************************************************************
           *              *               *               *               *   
         3 *   20  x 39   *    20  x 39   *    20  x 39   *    20  x 39   *   
           *         20   *          21   *          22   *          23   *         
           *              *               *               *               *   
           ****************************************************************
           *              *               *               *               *   
         2 *   20  x 39   *    20  x 39   *    20  x 39   *    20  x 39   *   
           *         10   *          11   *          12   *          13   *         
           *              *               *               *               *   
           ****************************************************************
           *              *               *               *               *   
         1 *   20  x 39   *    20  x 39   *    20  x 39   *    20  x 39   *   
           *          0   *           1   *           2   *           3   *         
           *              *               *               *               *   
           ****************************************************************
                   1               2               3               4             
 
           ****************************************************************
           *              *               *               *               *   
         4 *   20  x 38   *    20  x 38   *    20  x 38   *    20  x 38   *   
           *         33   *          34   *          35   *          36   *         
           *              *               *               *               *   
           ****************************************************************
           *              *               *               *               *   
         3 *   20  x 39   *    20  x 39   *    20  x 39   *    20  x 39   *   
           *         24   *          25   *          26   *          27   *         
           *              *               *               *               *   
           ****************************************************************
           *              *               *               *               *   
         2 *   20  x 39   *    20  x 39   *    20  x 39   *    20  x 39   *   
           *         14   *          15   *          16   *          17   *         
           *              *               *               *               *   
           ****************************************************************
           *              *               *               *               *   
         1 *   20  x 39   *    20  x 39   *    20  x 39   *    20  x 39   *   
           *          4   *           5   *           6   *           7   *         
           *              *               *               *               *   
           ****************************************************************
                   5               6               7               8             
 
           ********************************
           *              *               *   
         4 *   20  x 38   *    20  x 38   *   
           *         37   *          -1   *         
           *              *               *   
           ********************************
           *              *               *   
         3 *   20  x 39   *    20  x 39   *   
           *         28   *          29   *         
           *              *               *   
           ********************************
           *              *               *   
         2 *   20  x 39   *    20  x 39   *   
           *         18   *          19   *         
           *              *               *   
           ********************************
           *              *               *   
         1 *   20  x 39   *    20  x 39   *   
           *          8   *           9   *         
           *              *               *   
           ********************************
                   9              10             
 
    resulting internal parameters : 
       nproc  =            0
       nowe   =            9    noea  =             1
       nono   =           10    noso  =            -1
       nbondi =            0
       nbondj =           -1
       npolj  =            0
     l_Iperio =  F
     l_Jperio =  F
       nlci   =           20
       nlcj   =           39
       nimpp  =            1
       njmpp  =            1
       nreci  =            2
       nrecj  =            2
       nn_hls =            1
 
    ==>>>   North fold boundary prepared for jpni >1
 
 mpp_init_ioipsl :   iloc  =           20          39
 ~~~~~~~~~~~~~~~     iabsf =            1           1
                     ihals =            1           0
                     ihale =            1           1
 
 nemo_ctl: Control prints
 ~~~~~~~~
    Namelist namctl
       run control (for debugging)     ln_ctl     =  F
        finer control over o/p sn_cfctl%l_config  =  T
                               sn_cfctl%l_runstat =  F
                               sn_cfctl%l_trcstat =  F
                               sn_cfctl%l_oceout  =  F
                               sn_cfctl%l_layout  =  F
                               sn_cfctl%l_mppout  =  F
                               sn_cfctl%l_mpptop  =  F
                               sn_cfctl%procmin   =            0
                               sn_cfctl%procmax   =      1000000
                               sn_cfctl%procincr  =            1
                               sn_cfctl%ptimincr  =            1
       level of print                  nn_print   =            0
       Start i indice for SUM control  nn_ictls   =            0
       End i indice for SUM control    nn_ictle   =            0
       Start j indice for SUM control  nn_jctls   =            0
       End j indice for SUM control    nn_jctle   =            0
       number of proc. following i     nn_isplt   =            1
       number of proc. following j     nn_jsplt   =            1
       timing by routine               ln_timing  =  F
       CFL diagnostics                 ln_diacfl  =  F
 
    Namelist namcfg
       read domain configuration file                ln_read_cfg      =  T
          filename to be read                           cn_domcfg     = 
 ORCA_R2_zps_domcfg
          keep closed seas in the domain (if exist)     ln_closea     =  F
       create a configuration definition file        ln_write_cfg     =  F
          filename to be written                        cn_domcfg_out = 
 domain_cfg_out
       use file attribute if exists as i/p j-start   ln_use_jattr     =  F
 
 phy_cst : initialization of ocean parameters and constants
 ~~~~~~~
       mathematical constant                 rpi =    3.14159265358979     
       day                                rday   =    86400.0000000000       s
       sideral year                       rsiyea =    31558149.0101107       s
       sideral day                        rsiday =    86164.0996559118       s
       omega                              omega  =   7.292115083046062E-005  s^-
 1
 
       nb of months per year               raamo =    12.0000000000000      
  months
       nb of hours per day                 rjjhh =    24.0000000000000      
  hours
       nb of minutes per hour              rhhmm =    60.0000000000000       mn
       nb of seconds per minute            rmmss =    60.0000000000000       s
 
       earth radius                         ra   =    6371229.00000000       m
       gravity                              grav =    9.80665000000000      
  m/s^2
 
       freezing point of water              rt0  =    273.150000000000       K
 
    reference density and heat capacity now defined in eosbn2.f90
 
       thermal conductivity of pure ice          =    2.03439600000000      
  J/s/m/K
       thermal conductivity of snow is defined in a namelist 
       fresh ice specific heat                   =    2067.00000000000      
  J/kg/K
       latent heat of fusion of fresh ice / snow =    334000.000000000       J/k
 g
       latent heat of subl.  of fresh ice / snow =    2834000.00000000       J/k
 g
       density of sea ice                        =    917.000000000000      
  kg/m^3
       density of snow                           =    330.000000000000      
  kg/m^3
       density of freshwater (in melt ponds)     =    1000.00000000000      
  kg/m^3
       salinity of ice (for pisces)              =    6.00000000000000       psu
       salinity of sea (for pisces and isf)      =    34.7000000000000       psu
       latent heat of evaporation (water)        =    2500000.00000000      
  J/m^3
       von Karman constant                       =   0.400000000000000     
       Stefan-Boltzmann constant                 =   5.670000000000000E-008 
  J/s/m^2/K^4
 
       conversion: degre ==> radian          rad =   1.745329251994330E-002
 
       smallest real computer value       rsmall =   1.110223024625157E-016
 
 eos_init : equation of state
 ~~~~~~~~
    Namelist nameos : Chosen the Equation Of Seawater (EOS)
       TEOS-10 : rho=F(Conservative Temperature, Absolute  Salinity, depth)   ln
 _TEOS10 =  F
       EOS-80  : rho=F(Potential    Temperature, Practical Salinity, depth)   ln
 _EOS80  =  T
       S-EOS   : rho=F(Conservative Temperature, Absolute  Salinity, depth)   ln
 _SEOS   =  F
 
    ==>>>   use of EOS-80 equation of state (pot. temp. and pract. salinity)
 
    ==>>>   model does not use Conservative Temperature
 
    Associated physical constant
       volumic mass of reference           rau0  =    1026.00000000000      
  kg/m^3
       1. / rau0                        r1_rau0  =   9.746588693957114E-004 
  m^3/kg
       ocean specific heat                 rcp   =    3991.86795711963      
  J/Kelvin
       rau0 * rcp                       rau0_rcp =    4095656.52400474     
       1. / ( rau0 * rcp )           r1_rau0_rcp =   2.441610994816036E-007
 
 wad_init : Wetting and drying initialization through namelist read
 ~~~~~~~~
    Namelist namwad
       Logical for Iter Lim wd option   ln_wd_il     =  F
       Logical for Dir. Lim wd option   ln_wd_dl     =  F
       Depth at which wet/drying starts rn_wdmin0    =   0.300000000000000     
       Minimum wet depth on dried cells rn_wdmin1    =   0.200000000000000     
       Tolerance of min wet depth       rn_wdmin2    =   1.000000000000000E-004
       land elevation threshold         rn_wdld      =    2.50000000000000     
       Max iteration for W/D limiter    nn_wdit      =           20
       T => baroclinic u,v=0 at dry pts: ln_wd_dl_bc =  F
       use a ramp for rwd limiter:  ln_wd_dl_rwd_rmp =  F
       cut off depth sbc for wd   rn_wd_sbcdep       =    5.00000000000000     
       fraction to start sbc wgt rn_wd_sbcfra        =   0.999000000000000     
 
 dom_init : domain initialization
 ~~~~~~~~
    Domain info
       dimension of model:
              Local domain      Global domain       Data domain 
               jpi     :      20   jpiglo  :     182
               jpj     :      39   jpjglo  :     149
               jpk     :      31   jpkglo  :      31
               jpij    :     780
       mpp local domain info (mpp):
               jpni    :           10    nn_hls  :            1
               jpnj    :            4    nn_hls  :            1
               jpnij   :           38
       lateral boundary of the Global domain : jperio  =            4
          (i.e. cyclic east-west and north fold with T-point pivot)
       Ocean model configuration used:
          cn_cfg = ORCA   nn_cfg =            2
 
 dom_glo : domain: global <<==>> local 
 ~~~~~~~ 
    global domain:   jpiglo =          182  jpjglo =          149  jpkglo = 
          31
    local  domain:   jpi    =           20  jpj    =           39  jpk    = 
          31
 
    conversion from local to global domain indices (and vise versa) done
 
 dom_nam : domain initialization through namelist read
 ~~~~~~~ 
    Namelist : namrun   ---   run parameters
       Assimilation cycle              nn_no           =            0
       experiment name for output      cn_exp          = ORCA2
       file prefix restart input       cn_ocerst_in    = restart
       restart input directory         cn_ocerst_indir = .
       file prefix restart output      cn_ocerst_out   = restart
       restart output directory        cn_ocerst_outdir= .
       restart logical                 ln_rstart       =  F
       start with forward time step    nn_euler        =            1
       control of time step            nn_rstctl       =            0
       number of the first time step   nn_it000        =            1
       number of the last time step    nn_itend        =           45
       initial calendar date aammjj    nn_date0        =        10101
       initial time of day in hhmm     nn_time0        =            0
       leap year calendar (0/1)        nn_leapy        =            0
       initial state output            nn_istate       =            0
       frequency of restart file       nn_stock        =         5475
       frequency of output file        nn_write        =         5475
       mask land points                ln_mskland      =  F
       additional CF standard metadata ln_cfmeta       =  F
       overwrite an existing file      ln_clobber      =  T
       NetCDF chunksize (bytes)        nn_chunksz      =            0
       IS coupling at the restart step ln_iscpl        =  F
       READ restart for a single file using XIOS ln_xios_read = F
       Write restart using XIOS        nn_wxios   =            0
 
    ==>>>   Start from rest (ln_rstart=F)
            an Euler initial time step is used : nn_euler is forced to 0 

 ===>>> : W A R N I N G
         ===============

  nstock =         5475 it is forced to           45
 
    ==>>>   The IOIPSL calendar is "noleap", i.e. no leap year
 
    Namelist : namdom   ---   space & time domain
       linear free surface (=T)                ln_linssh   =  F
       create mesh/mask file                   ln_meshmask =  F
       treshold to open the isf cavity         rn_isfhmin  = 
   1.00000000000000       [m]
       ocean time step                         rn_rdt      = 
   5760.00000000000     
       asselin time filter parameter           rn_atfp     = 
  0.100000000000000     
       online coarsening of dynamical fields   ln_crs      =  F
 
 dom_hgr : define the horizontal mesh from ithe following par_oce parameters 
 ~~~~~~~   
    namcfg : read (=T) or user defined (=F) configuration    ln_read_cfg  =  T
 
    ==>>>   read horizontal mesh in ORCA_R2_zps_domcfg file
 
    hgr_read : read the horizontal coordinates in mesh_mask
    ~~~~~~~~      jpiglo =          182  jpjglo =          149  jpk = 
          31
                     iom_nf90_open ~~~ open existing file: ORCA_R2_zps_domcfg.nc
  in READ mode
                    ---> ORCA_R2_zps_domcfg.nc OK
           read glamt (rec:      1) in ORCA_R2_zps_domcfg.nc ok
           read glamu (rec:      1) in ORCA_R2_zps_domcfg.nc ok
           read glamv (rec:      1) in ORCA_R2_zps_domcfg.nc ok
           read glamf (rec:      1) in ORCA_R2_zps_domcfg.nc ok
           read gphit (rec:      1) in ORCA_R2_zps_domcfg.nc ok
           read gphiu (rec:      1) in ORCA_R2_zps_domcfg.nc ok
           read gphiv (rec:      1) in ORCA_R2_zps_domcfg.nc ok
           read gphif (rec:      1) in ORCA_R2_zps_domcfg.nc ok
           read e1t (rec:      1) in ORCA_R2_zps_domcfg.nc ok
           read e1u (rec:      1) in ORCA_R2_zps_domcfg.nc ok
           read e1v (rec:      1) in ORCA_R2_zps_domcfg.nc ok
           read e1f (rec:      1) in ORCA_R2_zps_domcfg.nc ok
           read e2t (rec:      1) in ORCA_R2_zps_domcfg.nc ok
           read e2u (rec:      1) in ORCA_R2_zps_domcfg.nc ok
           read e2v (rec:      1) in ORCA_R2_zps_domcfg.nc ok
           read e2f (rec:      1) in ORCA_R2_zps_domcfg.nc ok
            Coriolis factor at f- and t-points read in ORCA_R2_zps_domcfg file
           read ff_f (rec:      1) in ORCA_R2_zps_domcfg.nc ok
           read ff_t (rec:      1) in ORCA_R2_zps_domcfg.nc ok
                     iom_close ~~~ close file: ORCA_R2_zps_domcfg.nc ok
           Coriolis parameter have been read in ORCA_R2_zps_domcfg file
           u- & v-surfaces calculated as e1 e2 product
 
 dom_zgr : vertical coordinate
 ~~~~~~~
 
    ==>>>   Read vertical mesh in ORCA_R2_zps_domcfg file
 
    zgr_read : read the vertical coordinates in ORCA_R2_zps_domcfg file
    ~~~~~~~~
                     iom_nf90_open ~~~ open existing file: ORCA_R2_zps_domcfg.nc
  in READ mode
                    ---> ORCA_R2_zps_domcfg.nc OK
           read e3t_1d (rec:      1) in ORCA_R2_zps_domcfg.nc ok
           read e3w_1d (rec:      1) in ORCA_R2_zps_domcfg.nc ok
           read e3t_0 (rec:      1) in ORCA_R2_zps_domcfg.nc ok
           read e3u_0 (rec:      1) in ORCA_R2_zps_domcfg.nc ok
           read e3v_0 (rec:      1) in ORCA_R2_zps_domcfg.nc ok
           read e3f_0 (rec:      1) in ORCA_R2_zps_domcfg.nc ok
           read e3w_0 (rec:      1) in ORCA_R2_zps_domcfg.nc ok
           read e3uw_0 (rec:      1) in ORCA_R2_zps_domcfg.nc ok
           read e3vw_0 (rec:      1) in ORCA_R2_zps_domcfg.nc ok
 
               Reference 1D z-coordinate depth and scale factors:
          level  gdept_1d  gdepw_1d  e3t_1d   e3w_1d  
             1     5.00     0.00    10.00    10.00
             2    15.00    10.00    10.00    10.00
             3    25.00    20.00    10.00    10.00
             4    35.01    30.00    10.01    10.00
             5    45.01    40.01    10.01    10.01
             6    55.03    50.02    10.02    10.02
             7    65.06    60.04    10.05    10.03
             8    75.13    70.09    10.09    10.06
             9    85.25    80.18    10.17    10.12
            10    95.49    90.35    10.34    10.24
            11   105.97   100.69    10.66    10.48
            12   116.90   111.36    11.29    10.93
            13   128.70   122.65    12.51    11.80
            14   142.20   135.16    14.87    13.50
            15   158.96   150.03    19.39    16.77
            16   181.96   169.42    27.95    23.00
            17   216.65   197.37    43.76    34.69
            18   272.48   241.13    71.62    55.83
            19   364.30   312.74   116.98    91.83
            20   511.53   429.72   182.17   147.23
            21   732.20   611.89   260.98   220.67
            22  1033.22   872.87   338.71   301.02
            23  1405.70  1211.59   401.39   372.48
            24  1830.89  1612.98   444.16   425.19
            25  2289.77  2057.13   470.09   458.88
            26  2768.24  2527.22   484.68   478.47
            27  3257.48  3011.90   492.56   489.24
            28  3752.44  3504.46   496.70   494.96
            29  4250.40  4001.16   498.86   497.96
            30  4749.91  4500.02   499.98   499.51
            31  5250.23  5000.00   499.98   500.31
           read top_level (rec:      1) in ORCA_R2_zps_domcfg.nc ok
           read bottom_level (rec:      1) in ORCA_R2_zps_domcfg.nc ok
                     iom_close ~~~ close file: ORCA_R2_zps_domcfg.nc ok
 
 clo_bat : suppression of closed seas
 ~~~~~~~
                     iom_nf90_open ~~~ open existing file: ORCA_R2_zps_domcfg.nc
  in READ mode
                    ---> ORCA_R2_zps_domcfg.nc OK
 No closea_mask field found in domain_cfg file. No suppression of closed seas.
                     iom_close ~~~ close file: ORCA_R2_zps_domcfg.nc ok
 
    Type of vertical coordinate (read in ORCA_R2_zps_domcfg
  file or set in userdef_nam) :
       z-coordinate - full steps      ln_zco    =  F
       z-coordinate - partial steps   ln_zps    =  T
       s- or hybrid z-s-coordinate    ln_sco    =  F
       ice shelf cavities             ln_isfcav =  F
 
     zgr_top_bot : ocean top and bottom k-index of T-, U-, V- and W-levels 
     ~~~~~~~~~~~
 
 dommsk : ocean mask 
 ~~~~~~
    Namelist namlbc
       lateral momentum boundary cond.    rn_shlat  =    2.00000000000000     
       consistency with analytical form   ln_vorlat =  F
 
    ==>>>   ocean lateral  no-slip
 
 usr_def_fmask : NO alteration of fmask in specific straits 
 ~~~~~~~~~~~~~
 
 dom_vvl_init : Variable volume activated
 ~~~~~~~~~~~~
 
 dom_vvl_ctl : choice/control of the variable vertical coordinate
 ~~~~~~~~~~~
    Namelist nam_vvl : chose a vertical coordinate
       zstar                      ln_vvl_zstar   =  T
       ztilde                     ln_vvl_ztilde  =  F
       layer                      ln_vvl_layer   =  F
       ztilde as zstar   ln_vvl_ztilde_as_zstar  =  F
       ztilde near the equator    ln_vvl_zstar_at_eqtor  =  F
       !
       thickness diffusion coefficient                      rn_ahe3      = 
  0.000000000000000E+000
       maximum e3t deformation fractional change            rn_zdef_max  = 
  0.900000000000000     
       z-tilde to zstar restoration timescale (days)        rn_rst_e3t   = 
   30.0000000000000     
       z-tilde cutoff frequency of low-pass filter (days)   rn_lf_cutoff = 
   5.00000000000000     
          debug prints flag                                 ln_vvl_dbg   =  T
 
       ==>>>   zstar vertical coordinate is used
 
 dom_ctl : extrema of the masked scale factors
 ~~~~~~~
              e1t maxi:  222397.85 at i =     2 j=    74
              e1t mini:   47096.05 at i =    51 j=     2
              e2t maxi:  209504.00 at i =     5 j=    92
              e2t mini:   47096.05 at i =    51 j=     2
 
 dom_init :   ==>>>   END of domain initialization
 ~~~~~~~~
 
 
 istate_init : Initialization of the dynamics and tracers
 ~~~~~~~~~~~
 
 dta_tsd_init : Temperature & Salinity data 
 ~~~~~~~~~~~~ 
    Namelist namtsd
       Initialisation of ocean T & S with T &S input data   ln_tsd_init =  T
       damping of ocean T & S toward T &S input data        ln_tsd_dmp  =  T
 
 
    fld_fill : fill data structure with information from namelist namtsd
    ~~~~~~~~
       list of files and frequency (>0: in hours ; <0 in months)
       root filename: ./data_1m_potential_temperature_nomask   variable name: 
 votemper
          frequency:   -1.00000000000000         time interp:  T    climatology:
   T
          weights:    pairing:    data type: yearly     land/sea mask:
       root filename: ./data_1m_salinity_nomask   variable name: vosaline
          frequency:   -1.00000000000000         time interp:  T    climatology:
   T
          weights:    pairing:    data type: yearly     land/sea mask:
  *** Info used values : 
    date ndastp                                      :        10100
    number of elapsed days since the begining of run :   0.000000000000000E+000
    nn_time0                                         :            0
 
 =======>> 1/2 time step before the start of the run DATE Y/M/D =      0/12/31  nsec_day:   83520  nsec_week:  429120                     nsec_month: 2675520  nsec_year:31533120
======>> time-step =       1      New day, DATE Y/M/D = 0001/01/01      nday_year = 001
         nsec_year =     2880   nsec_month =    2880   nsec_day =  2880
   nsec_week =   434880
                     iom_nf90_open ~~~ open existing file: ./data_1m_potential_t
 emperature_nomask.nc in READ mode
                    ---> ./data_1m_potential_temperature_nomask.nc OK
           read votemper (rec:     12) in ./data_1m_potential_temperature_nomask.nc ok
   fld_init : time-interpolation for votemper read previous record =     12 at time =  -15.50 days
                     iom_nf90_open ~~~ open existing file: ./data_1m_salinity_no
 mask.nc in READ mode
                    ---> ./data_1m_salinity_nomask.nc OK
           read vosaline (rec:     12) in ./data_1m_salinity_nomask.nc ok
   fld_init : time-interpolation for vosaline read previous record =     12 at time =  -15.50 days
           read votemper (rec:      1) in ./data_1m_potential_temperature_nomask.nc ok
           read vosaline (rec:      1) in ./data_1m_salinity_nomask.nc ok
   fld_read: var votemper kt =        1 (   0.0333 days), Y/M/D = 0001/01/01, records b/a:   0012/  0001 (days  -15.5000/  15.5000)
       it_offset is :            0
   fld_read: var vosaline kt =        1 (   0.0333 days), Y/M/D = 0001/01/01, records b/a:   0012/  0001 (days  -15.5000/  15.5000)
       it_offset is :            0
 
 tide_init : tidal components not used (ln_tide = F)
 ~~~~~~~~~ 
 
 sbc_init : surface boundary condition setting
 ~~~~~~~~ 
    Namelist namsbc (partly overwritten with CPP key setting)
       frequency update of sbc (and ice)             nn_fsbc       = 
           3
       Type of air-sea fluxes : 
          user defined formulation                   ln_usr        =  F
          flux         formulation                   ln_flx        =  F
          bulk         formulation                   ln_blk        =  F
       Type of coupling (Ocean/Ice/Atmosphere) : 
          ocean-atmosphere coupled formulation       ln_cpl        =  T
          mixed forced-coupled     formulation       ln_mixcpl     =  F
          OASIS coupling (with atm or sas)           lk_oasis      =  T
          components of your executable              nn_components = 
           0
       Sea-ice : 
          ice management in the sbc (=0/1/2/3)       nn_ice        = 
           2
          ice embedded into ocean                    ln_ice_embd   =  F
       Misc. options of sbc : 
          Light penetration in temperature Eq.       ln_traqsr     =  T
             daily mean to diurnal cycle qsr            ln_dm2dc   =  F
          Sea Surface Restoring on SST and/or SSS    ln_ssr        =  T
          FreshWater Budget control  (=0/1/2)        nn_fwb        = 
           2
          Patm gradient added in ocean & ice Eqs.    ln_apr_dyn    =  F
          runoff / runoff mouths                     ln_rnf        =  T
          iceshelf formulation                       ln_isf        =  F
          nb of iterations if land-sea-mask applied  nn_lsm        = 
           0
          surface wave                               ln_wave       =  F
                Stokes drift corr. to vert. velocity ln_sdw        =  F
                   vertical parametrization          nn_sdrift     = 
           0
                wave modified ocean stress           ln_tauwoc     =  F
                wave modified ocean stress component ln_tauw       =  F
                Stokes coriolis term                 ln_stcor      =  F
                neutral drag coefficient (CORE,NCAR) ln_cdgw       =  F
 
    ==>>>   NEMO configured as a single executable (i.e. including both OPA and 
 Surface module)
 
    ==>>>   pure coupled formulation
 
 sbc_cpl_init : namsbc_cpl namelist 
 ~~~~~~~~~~~~
   received fields (mutiple ice categogies)
       10m wind module                 = none (no)
       stress module                   = none (no)
       surface stress                  = oce only (no)
                      - referential    = spherical                       
                      - orientation    = eastward-northward              
                      - mesh           = T                               
       non-solar heat flux sensitivity = coupled (no)
       solar heat flux                 = conservative (no)
       non-solar heat flux             = conservative (no)
       freshwater budget               = conservative (no)
       runoffs                         = none (no)
       calving                         = none (no)
       iceberg                         = none (no)
       ice shelf                       = none (no)
       sea ice heat fluxes             = none (no)
       atm co2                         = none (no)
       significant wave heigth         = none (no)
       wave to oce energy flux         = none (no)
       Surface Stokes drift grid u     = none (no)
       Surface Stokes drift grid v     = none (no)
       Mean wave period                = none (no)
       Mean wave number                = none (no)
       Wave peak frequency             = none (no)
       Stress frac adsorbed by waves   = none (no)
       Stress components by waves      = none (no)
       Neutral surf drag coefficient   = none (no)
       Sea ice surface skin temperature= none (no)
   sent fields (multiple ice categories)
       surface temperature             = weighted oce and ice (no)
       top ice layer temperature       = none (no)
       albedo                          = none (no)
       ice/snow thickness              = none (no)
       total ice fraction              = none (no)
       surface current                 = none (no)
                       - referential   = spherical                       
                       - orientation   = eastward-northward              
                       - mesh          = T                               
       oce co2 flux                    = none (no)
       ice effective conductivity      = none (no)
       meltponds fraction and depth    = none (no)
       sea surface freezing temp       = none (no)
       water level                     = none (no)
       mean sea level pressure         = none (no)
       surface current to waves        = none (no)
                       - referential   =                                 
                       - orientation   =                                 
                       - mesh          = U,V                             
   nn_cplmodel                         =            1
   ln_usecplmask                       =  F
   nn_cats_cpl                         =            5
 
 cpl_define : initialization in coupled ocean/atmosphere case
 ~~~~~~~~~~~~~~~~~
 
 
 sbc_ssm_init : sea surface mean fields
 ~~~~~~~~~~~~ 
    default initialisation of ss._m arrays
 
 sbc_ssr : SST and/or SSS damping term 
 ~~~~~~~ 
    Namelist namsbc_ssr :
       SST restoring term (Yes=1)             nn_sstr        =            0
          dQ/dT (restoring magnitude on SST)     rn_dqdt     = 
  -40.0000000000000       W/m2/K
       SSS damping term (Yes=1, salt   flux)  nn_sssr        =            2
                        (Yes=2, volume flux) 
          dE/dS (restoring magnitude on SST)     rn_deds     = 
  -166.670000000000       mm/day
          flag to bound erp term                 ln_sssr_bnd =  T
          ABS(Max./Min.) erp threshold           rn_sssr_bnd = 
   4.00000000000000       mm/day
 
    fld_fill : fill data structure with information from namelist namsbc_ssr
    ~~~~~~~~
       list of files and frequency (>0: in hours ; <0 in months)
       root filename: ./sss_data   variable name: sss
          frequency:   -1.00000000000000         time interp:  T    climatology:
   T
          weights:    pairing:    data type: yearly     land/sea mask:
 
 sbc_rnf_init : runoff 
 ~~~~~~~~~~~~ 
    Namelist namsbc_rnf
       specific river mouths treatment            ln_rnf_mouth =  T
       river mouth additional Kz                  rn_avt_rnf   = 
  1.000000000000000E-003
       depth of river mouth additional mixing     rn_hrnf      = 
   15.0000000000000     
       multiplicative factor for runoff           rn_rfact     = 
   1.00000000000000     
 
    ==>>>   runoffs inflow read in a file
 
    fld_fill : fill data structure with information from namelist namsbc_rnf
    ~~~~~~~~
       list of files and frequency (>0: in hours ; <0 in months)
       root filename: ./runoff_core_monthly   variable name: sorunoff
          frequency:   -1.00000000000000         time interp:  T    climatology:
   T
          weights:    pairing:    data type: yearly     land/sea mask:
 
    ==>>>   Specific treatment used in vicinity of river mouths :
              - Increase Kz in surface layers (if rn_hrnf > 0 )
                by   1.000000000000000E-003  m2/s  over            2  w-levels
              - set to zero SSS damping       (if ln_ssr=T)
              - mixed upstream-centered       (if ln_traadv_cen2=T)
 
    rnf_mouth : river mouth mask
    ~~~~~~~~~ 
                     iom_nf90_open ~~~ open existing file: ./runoff_core_monthly
 .nc in READ mode
                    ---> ./runoff_core_monthly.nc OK
           read socoefr0 (rec:      1) in ./runoff_core_monthly.nc ok
                     iom_close ~~~ close file: ./runoff_core_monthly.nc ok
 
 Sea Ice Model: SI3 (Sea Ice modelling Integrated Initiative)
 ~~~~~~~~~~~~~
 
 ice_init: Arrays allocation & Initialization of all routines & init state
 ~~~~~~~~
      file   : namelist_ice_ref open ok
      unit   =           21
      status = OLD
      form   = FORMATTED
      access = SEQUENTIAL
 
      file   : namelist_ice_cfg open ok
      unit   =           22
      status = OLD
      form   = FORMATTED
      access = SEQUENTIAL
 
      file   : output.namelist.ice open ok
      unit   =           23
      status = UNKNOWN
      form   = FORMATTED
      access = SEQUENTIAL
 
 
    par_init: ice parameters shared among all the routines
    ~~~~~~~~
       Namelist nampar: 
          number of ice  categories                           jpl       = 
           5
          number of ice  layers                               nlay_i    = 
           2
          number of snow layers                               nlay_s    = 
           1
          virtual ITD param for jpl=1 (T) or not (F)     ln_virtual_itd =  F
          Ice dynamics       (T) or not (F)                   ln_icedyn =  T
          Ice thermodynamics (T) or not (F)                   ln_icethd =  T
          maximum ice concentration for NH                              = 
  0.997000000000000     
          maximum ice concentration for SH                              = 
  0.997000000000000     
 
       ice timestep rdt_ice = nn_fsbc*rdt =    17280.0000000000     
 
 ice_itd_init: Initialization of ice cat distribution 
 ~~~~~~~~~~~~
    Namelist namitd: 
       Ice categories are defined by a function of rn_himean**(-0.05)    ln_cat_
 hfn =  T
          mean ice thickness in the domain                               rn_hime
 an  =    2.00000000000000     
       Ice categories are defined by rn_catbnd                           ln_cat_
 usr =  F
       minimum ice thickness                                             rn_himi
 n   =   0.100000000000000     
 
    ===>>>   resulting thickness category boundaries :
             hi_max(:)=   0.000000000000000E+000  0.454016742415552     
   1.12931382308363        2.14145898894797        3.67059640991554     
   99.0000000000000     
 
 ice_thd_init: Ice Thermodynamics
 ~~~~~~~~~~~~
    Namelist namthd:
       activate ice thick change from top/bot (T) or not (F)   ln_icedH  =  T
       activate lateral melting (T) or not (F)                 ln_icedA  =  T
       activate ice growth in open-water (T) or not (F)        ln_icedO  =  T
       activate gravity drainage and flushing (T) or not (F)   ln_icedS  =  T
 
 ice_thd_zdf_init: Ice vertical heat diffusion
 ~~~~~~~~~~~~~~~~
    Namelist namthd_zdf:
       Bitz and Lipscomb (1999) formulation                    ln_zdf_BL99  =  T
       thermal conductivity in the ice (Untersteiner 1964)     ln_cndi_U64  =  F
       thermal conductivity in the ice (Pringle et al 2007)    ln_cndi_P07  =  T
       thermal conductivity in the snow                        rn_cnd_s     = 
  0.310000000000000     
       extinction radiation parameter in sea ice               rn_kappa_i   = 
   1.00000000000000     
 
 ice_thd_da_init: Ice lateral melting
 ~~~~~~~~~~~~~~~
    Namelist namthd_da:
       Coef. beta for lateral melting param.               rn_beta = 
   1.00000000000000     
       Minimum floe diameter for lateral melting param.    rn_dmin = 
   8.00000000000000     
 
 ice_thd_do_init: Ice growth in open water
 ~~~~~~~~~~~~~~~
    Namelist namthd_do:
       ice thickness for lateral accretion                       rn_hinew   = 
  0.100000000000000     
       Frazil ice thickness as a function of wind or not         ln_frazil  =  F
       Maximum proportion of frazil ice collecting at bottom     rn_maxfraz = 
   1.00000000000000     
       Threshold relative drift speed for collection of frazil   rn_vfraz   = 
  0.417000000000000     
       Squeezing coefficient for collection of frazil            rn_Cfraz   = 
   5.00000000000000     
 
 ice_thd_sal_init : Ice parameters for salinity 
 ~~~~~~~~~~~~~~~~
    Namelist namthd_sal:
       switch for salinity                                     nn_icesal  = 
           2
       bulk salinity value if nn_icesal = 1                    rn_icesal  = 
   4.00000000000000     
       restoring salinity for gravity drainage                 rn_sal_gd  = 
   5.00000000000000     
       restoring time for for gravity drainage                 rn_time_gd = 
   1730000.00000000     
       restoring salinity for flushing                         rn_sal_fl  = 
   2.00000000000000     
       restoring time for flushing                             rn_time_fl = 
   864000.000000000     
       Maximum tolerated ice salinity                          rn_simax   = 
   20.0000000000000     
       Minimum tolerated ice salinity                          rn_simin   = 
  0.100000000000000     
 
 ice_thd_pnd_init: ice parameters for melt ponds
 ~~~~~~~~~~~~~~~~
    Namelist namicethd_pnd:
       Evolutive  melt pond fraction and depth (Holland et al 2012) ln_pnd_H12 =
   F
       Prescribed melt pond fraction and depth                      ln_pnd_CST =
   F
          Prescribed pond fraction                                  rn_apnd    =
    0.200000000000000     
          Prescribed pond depth                                     rn_hpnd    =
    5.000000000000000E-002
       Melt ponds affect albedo or not                              ln_pnd_alb =
   F
 
 ice_istate_init: ice parameters inititialisation 
 ~~~~~~~~~~~~~~~
    Namelist namini:
       initialization with ice (T) or not (F)                 ln_iceini       = 
 T
       ice initialization from a netcdf file                  ln_iceini_file  = 
 F
       max delta ocean temp. above Tfreeze with initial ice   rn_thres_sst    = 
   2.00000000000000     
       initial snow thickness in the north                    rn_hts_ini_n    = 
  0.300000000000000     
       initial snow thickness in the south                    rn_hts_ini_s    = 
  0.300000000000000     
       initial ice thickness  in the north                    rn_hti_ini_n    = 
   3.00000000000000     
       initial ice thickness  in the south                    rn_hti_ini_s    = 
   1.00000000000000     
       initial ice concentr.  in the north                    rn_ati_ini_n    = 
  0.900000000000000     
       initial ice concentr.  in the north                    rn_ati_ini_s    = 
  0.900000000000000     
       initial  ice salinity  in the north                    rn_smi_ini_n    = 
   6.30000000000000     
       initial  ice salinity  in the south                    rn_smi_ini_s    = 
   6.30000000000000     
       initial  ice/snw temp  in the north                    rn_tmi_ini_n    = 
   270.000000000000     
       initial  ice/snw temp  in the south                    rn_tmi_ini_s    = 
   270.000000000000     
 
 ice_istate: sea-ice initialization 
 ~~~~~~~~~~
 
 ice_sbc_init: ice parameters for ice dynamics 
 ~~~~~~~~~~~~~~~~
    Namelist namsbc:
       drag coefficient for oceanic stress              rn_cio        = 
  5.000000000000000E-003
       coefficient for ice-lead partition of snowfall   rn_blow_s     = 
  0.660000000000000     
       Multicategory heat flux formulation              nn_flxdist    = 
          -1
       Use conduction flux as surface condition         ln_cndflx     =  F
          emulate conduction flux                       ln_cndemulate =  F
 
    SI3: use per-category fluxes (nn_flxdist = -1) 
 
 ice_dyn_init: ice parameters for ice dynamics 
 ~~~~~~~~~~~~
    Namelist namdyn:
       Full ice dynamics      (rhg + adv + ridge/raft + corr)  ln_dynALL       =
   T
       No ridge/raft & No cor (rhg + adv)                      ln_dynRHGADV    =
   F
       Advection 1D only      (Schar & Smolarkiewicz 1996)     ln_dynADV1D     =
   F
       Advection 2D only      (rn_uvice + adv)                 ln_dynADV2D     =
   F
          with prescribed velocity given by   (u,v)_ice = (rn_uice,rn_vice)    =
  (  0.500000000000000      ,  0.500000000000000      )
       lateral boundary condition for sea ice dynamics         rn_ishlat       =
     2.00000000000000     
       Landfast: param from Lemieux 2016                       ln_landfast_L16 =
   F
       Landfast: param from home made                          ln_landfast_home=
   F
          fraction of ocean depth that ice must reach          rn_depfra       =
    0.125000000000000     
          maximum bottom stress per unit area of contact       rn_icebfr       =
     15.0000000000000     
          relax time scale (s-1) to reach static friction      rn_lfrelax      =
    1.000000000000000E-005
          isotropic tensile strength                           rn_tensile      =
    0.200000000000000     
 
    ===>>>   ice lateral  no-slip
 
 ice_dyn_rdgrft_init: ice parameters for ridging/rafting 
 ~~~~~~~~~~~~~~~~~~
    Namelist namdyn_rdgrft:
       ice strength parameterization Hibler (1979)              ln_str_H79   = 
 T
             1st bulk-rheology parameter                        rn_pstar     = 
   20000.0000000000     
             2nd bulk-rhelogy parameter                         rn_crhg      = 
   20.0000000000000     
       Fraction of shear energy contributing to ridging         rn_csrdg     = 
  0.500000000000000     
       linear ridging participation function                    ln_partf_lin = 
 F
             Fraction of ice coverage contributing to ridging   rn_gstar     = 
  0.150000000000000     
       Exponential ridging participation function               ln_partf_exp = 
 T
             Equivalent to G* for an exponential function       rn_astar     = 
  3.000000000000000E-002
       Ridging of ice sheets or not                             ln_ridging   = 
 T
             max ridged ice thickness                           rn_hstar     = 
   25.0000000000000     
             Initial porosity of ridges                         rn_porordg   = 
  0.300000000000000     
             Fraction of snow volume conserved during ridging   rn_fsnwrdg   = 
  0.500000000000000     
             Fraction of pond volume conserved during ridging   rn_fpndrdg   = 
   1.00000000000000     
       Rafting of ice sheets or not                             ln_rafting   = 
 T
             Parmeter thickness (threshold between ridge-raft)  rn_hraft     = 
  0.750000000000000     
             Rafting hyperbolic tangent coefficient             rn_craft     = 
   5.00000000000000     
             Fraction of snow volume conserved during rafting   rn_fsnwrft   = 
  0.500000000000000     
             Fraction of pond volume conserved during rafting   rn_fpndrft   = 
   1.00000000000000     
 
 ice_dyn_rhg_init: ice parameters for ice dynamics 
 ~~~~~~~~~~~~~~~
    Namelist : namdyn_rhg:
       rheology EVP (icedyn_rhg_evp)                        ln_rhg_EVP =  T
          use adaptive EVP (aEVP)                           ln_aEVP    =  T
          creep limit                                       rn_creepl  = 
  2.000000000000000E-009
          eccentricity of the elliptical yield curve        rn_ecc     = 
   2.00000000000000     
          number of iterations for subcycling               nn_nevp    = 
         120
          ratio of elastic timescale over ice time step     rn_relast  = 
  0.333000000000000     
 
    ==>>>   start from rest: set stresses to 0
 
 ice_dyn_adv_init: ice parameters for ice dynamics 
 ~~~~~~~~~~~~~~~~
    Namelist namdyn_adv:
       type of advection scheme (Prather)             ln_adv_Pra =  F
       type of advection scheme (Ulimate-Macho)       ln_adv_UMx =  T
          order of the Ultimate-Macho scheme          nn_UMx     =            5
 
 ice_update_init: ice-ocean stress init
 ~~~~~~~~~~~~~~~
    ==>>   start from rest: set the snow-ice mass
 
 ice_alb_init: set albedo parameters
 ~~~~~~~~~~~~
    Namelist namalb:
       albedo of dry snow                   rn_alb_sdry = 
  0.850000000000000     
       albedo of melting snow               rn_alb_smlt = 
  0.750000000000000     
       albedo of dry ice                    rn_alb_idry = 
  0.600000000000000     
       albedo of bare puddled ice           rn_alb_imlt = 
  0.500000000000000     
       albedo of ponded ice                 rn_alb_dpnd = 
  0.270000000000000     
 
 ice_dia_init: ice diagnostics
  ~~~~~~~~~~~
    Namelist namdia:
       Diagnose online heat/mass/salt budget      ln_icediachk =  F
       Output          heat/mass/salt budget      ln_icediahsb =  F
       control prints for a given grid point      ln_icectl    =  F
          chosen grid point position         (iiceprt,jiceprt) = (          10 ,
          10 )
 
 bdy_init : open boundaries not used (ln_bdy = F)
 ~~~~~~~~
 
 zdf_phy_init: ocean vertical physics
 ~~~~~~~~~~~~
    Namelist namzdf : set vertical mixing mixing parameters
       adaptive-implicit vertical advection
          Courant number targeted application   ln_zad_Aimp =  F
       vertical closure scheme
          constant vertical mixing coefficient    ln_zdfcst =  F
          Richardson number dependent closure     ln_zdfric =  F
          Turbulent Kinetic Energy closure (TKE)  ln_zdftke =  T
          Generic Length Scale closure (GLS)      ln_zdfgls =  F
          OSMOSIS-OBL closure (OSM)               ln_zdfosm =  F
       convection: 
          enhanced vertical diffusion             ln_zdfevd =  T
             applied on momentum (=1/0)             nn_evdm =            0
             vertical coefficient for evd           rn_evd  = 
   100.000000000000     
          non-penetrative convection (npc)        ln_zdfnpc =  F
             npc call  frequency                    nn_npc  =            1
             npc print frequency                    nn_npcp =          365
       double diffusive mixing                    ln_zdfddm =  T
          maximum avs for dd mixing                 rn_avts = 
  1.000000000000000E-004
          heat/salt buoyancy flux ratio             rn_hsbfr= 
   1.60000000000000     
       gravity wave-induced mixing
          surface  wave (Qiao et al 2010)         ln_zdfswm =  F
          internal wave (de Lavergne et al 2017)  ln_zdfiwm =  T
       coefficients : 
          vertical eddy viscosity                 rn_avm0   = 
  1.200000000000000E-004
          vertical eddy diffusivity               rn_avt0   = 
  1.200000000000000E-005
          constant background or profile          nn_avb    =            0
          horizontal variation for avtb           nn_havtb  =            1
 
    ==>>>   convection: use enhanced vertical diffusion scheme
 
    ==>>>   use double diffusive mixing: avs /= avt
 
 zdf_tke_init : tke turbulent closure scheme - initialisation
 ~~~~~~~~~~~~
    Namelist namzdf_tke : set tke mixing parameters
       coef. to compute avt                        rn_ediff  = 
  0.100000000000000     
       Kolmogoroff dissipation coef.               rn_ediss  = 
  0.700000000000000     
       tke surface input coef.                     rn_ebb    = 
   67.8300000000000     
       minimum value of tke                        rn_emin   = 
  1.000000000000000E-006
       surface minimum value of tke                rn_emin0  = 
  1.000000000000000E-004
       prandl number flag                          nn_pdl    =            1
       background shear (>0)                       rn_bshear = 
  9.999999999999999E-021
       mixing length type                          nn_mxl    =            3
          surface mixing length = F(stress) or not    ln_mxl0   =  T
          surface  mixing length minimum value        rn_mxl0   = 
  4.000000000000000E-002
       top/bottom friction forcing flag            ln_drg    =  F
       Langmuir cells parametrization              ln_lc     =  T
          coef to compute vertical velocity of LC     rn_lc  = 
  0.150000000000000     
       test param. to add tke induced by wind      nn_etau   =            1
           type of tke penetration profile            nn_htau   =            1
           fraction of TKE that penetrates            rn_efr    = 
  5.000000000000000E-002
           below sea-ice:  =0 ON                      rn_eice   = 
  0.000000000000000E+000
           =4 OFF when ice fraction > 1/4   
 
    ==>>>   critical Richardson nb with your parameters  ri_cri = 
  0.222222222222222     
 
    ==>>>   Internal wave-driven mixing case:   force   rn_emin = 1.e-10 and rmx
 l_min = 1.e-3
 
    ==>>>   use a surface mixing length = F(stress) :   set rn_mxl0 = rmxl_min
 
    ==>>>   start from rest: set en to the background value
 
 zdf_iwm_init : internal wave-driven mixing
 ~~~~~~~~~~~~
    Namelist namzdf_iwm : set wave-driven mixing parameters
       Pycnocline-intensified diss. scales as N (=1) or N^2 (=2) =            2
       Variable (T) or constant (F) mixing efficiency            =  T
       Differential internal wave-driven mixing (T) or not (F)   =  T
 
    Force the background value applied to avm & avt in TKE to be everywhere 
 the viscous molecular value & a very small diffusive value, resp.
                     iom_nf90_open ~~~ open existing file: mixing_power_bot.nc i
 n READ mode
                    ---> mixing_power_bot.nc OK
           read field (rec:      1) in mixing_power_bot.nc ok
                     iom_close ~~~ close file: mixing_power_bot.nc ok
                     iom_nf90_open ~~~ open existing file: mixing_power_pyc.nc i
 n READ mode
                    ---> mixing_power_pyc.nc OK
           read field (rec:      1) in mixing_power_pyc.nc ok
                     iom_close ~~~ close file: mixing_power_pyc.nc ok
                     iom_nf90_open ~~~ open existing file: mixing_power_cri.nc i
 n READ mode
                    ---> mixing_power_cri.nc OK
           read field (rec:      1) in mixing_power_cri.nc ok
                     iom_close ~~~ close file: mixing_power_cri.nc ok
                     iom_nf90_open ~~~ open existing file: decay_scale_bot.nc in
  READ mode
                    ---> decay_scale_bot.nc OK
           read field (rec:      1) in decay_scale_bot.nc ok
                     iom_close ~~~ close file: decay_scale_bot.nc ok
                     iom_nf90_open ~~~ open existing file: decay_scale_cri.nc in
  READ mode
                    ---> decay_scale_cri.nc OK
           read field (rec:      1) in decay_scale_cri.nc ok
                     iom_close ~~~ close file: decay_scale_cri.nc ok
       High-mode wave-breaking energy:               0.523089869681718      TW
       Pycnocline-intensifed wave-breaking energy:   0.560575778617668      TW
       Critical slope wave-breaking energy:          0.118845605181049      TW
 
 zdf_drg_init : top and/or bottom drag setting
 ~~~~~~~~~~~~
    Namelist namdrg : top/bottom friction choices
       free-slip       : Cd = 0                  ln_OFF      =  F
       linear  drag    : Cd = Cd0                ln_lin      =  T
       non-linear  drag: Cd = Cd0_nl |U|         ln_non_lin  =  F
       logarithmic drag: Cd = vkarmn/log(z/z0)   ln_loglayer =  F
       implicit friction                         ln_drgimp   =  T
 
    Namelist namdrg_bot : set BOTTOM friction parameters
       drag coefficient                        rn_Cd0   = 
  1.000000000000000E-003
       characteristic velocity (linear case)   rn_Uc0   = 
  0.400000000000000       m/s
       non-linear drag maximum                 rn_Cdmax = 
  0.100000000000000     
       background kinetic energy  (n-l case)   rn_ke0   = 
  2.500000000000000E-003
       bottom roughness           (n-l case)   rn_z0    = 
  3.000000000000000E-003
       set a regional boost of Cd0             ln_boost =  F
          associated boost factor              rn_boost = 
   50.0000000000000     
 
    ==>>>   linear BOTTOM friction (constant coef = Cd0*Uc0 = 
  4.000000000000000E-004 )
 
 ldf_tra_init : lateral tracer diffusion
 ~~~~~~~~~~~~ 
    Namelist : namtra_ldf --- lateral mixing parameters (type, direction, coeffi
 cients)
       type :
          no explicit diffusion                   ln_traldf_OFF   =  F
          laplacian operator                      ln_traldf_lap   =  T
          bilaplacian operator                    ln_traldf_blp   =  F
       direction of action :
          iso-level                               ln_traldf_lev   =  F
          horizontal (geopotential)               ln_traldf_hor   =  F
          iso-neutral Madec operator              ln_traldf_iso   =  T
          iso-neutral triad operator              ln_traldf_triad =  F
             use the Method of Stab. Correction   ln_traldf_msc   =  T
             maximum isoppycnal slope             rn_slpmax       = 
  1.000000000000000E-002
             pure lateral mixing in ML            ln_triad_iso    =  F
             switching triad or not               rn_sw_triad     = 
   1.00000000000000     
             lateral mixing on bottom             ln_botmix_triad =  F
       coefficients :
          type of time-space variation            nn_aht_ijk_t    =           20
             lateral diffusive velocity (if cst)  rn_Ud           = 
  1.800000000000000E-002  m/s
             lateral diffusive length   (if cst)  rn_Ld           = 
   200000.000000000       m
 
    ==>>>   Rotated laplacian operator (standard)
 
    ==>>>   eddy diffusivity = F( e1, e2 ) or F( e1^3, e2^3 ) (lap or blp case)
            using a fixed diffusive velocity =   1.800000000000000E-002 
  m/s   and   Ld = Max(e1,e2)
            maximum reachable coefficient (at the Equator) = 
   1000.79031103691       m2/s  for e1=1)
 
    ldf_c2d :   aht = Ufac * max(e1,e2)   with Ufac =   8.999999999999999E-003 
  m/s
 
 ldf_eiv_init : eddy induced velocity parametrization
 ~~~~~~~~~~~~ 
    Namelist namtra_eiv : 
       Eddy Induced Velocity (eiv) param.         ln_ldfeiv     =  T
       eiv streamfunction & velocity diag.        ln_ldfeiv_dia =  T
       coefficients :
          type of time-space variation            nn_aei_ijk_t  =           20
          lateral diffusive velocity (if cst)     rn_Ue         = 
  3.000000000000000E-002  m/s
          lateral diffusive length   (if cst)     rn_Le         = 
   200000.000000000       m
 
    ==>>>   use eddy induced velocity parametrization
 
    ==>>>   eddy induced velocity coef. = F( latitude, longitude, time )
                                        = F( growth rate of baroclinic instabili
 ty )
            maximum allowed value: aei0 =    3000.00000000000       m2/s
 
 ldf_dyn : lateral momentum physics
 ~~~~~~~
    Namelist namdyn_ldf : set lateral mixing parameters
       type :
          no explicit diffusion                ln_dynldf_OFF =  F
          laplacian operator                   ln_dynldf_lap =  T
          bilaplacian operator                 ln_dynldf_blp =  F
       direction of action :
          iso-level                            ln_dynldf_lev =  T
          horizontal (geopotential)            ln_dynldf_hor =  F
          iso-neutral                          ln_dynldf_iso =  F
       coefficients :
          type of time-space variation         nn_ahm_ijk_t  =          -30
          lateral viscous velocity  (if cst)      rn_Uv      = 
  0.100000000000000       m/s
          lateral viscous length    (if cst)      rn_Lv      = 
   10000.0000000000       m
          background viscosity (iso-lap case)     rn_ahm_b   = 
  0.000000000000000E+000  m2/s
       Smagorinsky settings (nn_ahm_ijk_t  = 32) :
          Smagorinsky coefficient              rn_csmc       = 
   3.50000000000000     
          factor multiplier for eddy visc.
             lower limit (default 1.0)         rn_minfac    = 
   1.00000000000000     
             upper limit (default 1.0)         rn_maxfac    = 
   1.00000000000000     
 
    ==>>>   iso-level laplacian operator
 
    ==>>>   eddy viscosity = F(i,j,k) read in eddy_viscosity_3D.nc file
                     iom_nf90_open ~~~ open existing file: eddy_viscosity_3D.nc 
 in READ mode
                    ---> eddy_viscosity_3D.nc OK
           read ahmt_3d (rec:      1) in eddy_viscosity_3D.nc ok
           read ahmf_3d (rec:      1) in eddy_viscosity_3D.nc ok
                     iom_close ~~~ close file: eddy_viscosity_3D.nc ok
 
 tra_qsr_init : penetration of the surface solar radiation
 ~~~~~~~~~~~~
    Namelist namtra_qsr : set the parameter of penetration
       RGB (Red-Green-Blue) light penetration       ln_qsr_rgb =  T
       2 band               light penetration       ln_qsr_2bd =  F
       bio-model            light penetration       ln_qsr_bio =  F
       RGB : Chl data (=1) or cst value (=0)        nn_chldta  =            1
       RGB & 2 bands: fraction of light (rn_si1)    rn_abs     = 
  0.580000000000000     
       RGB & 2 bands: shortess depth of extinction  rn_si0     = 
  0.350000000000000     
       2 bands: longest depth of extinction         rn_si1     = 
   23.0000000000000     
 
    ==>>>   R-G-B   light penetration 
 
    trc_oce_rgb : Initialisation of the optical look-up table
    ~~~~~~~~~~~ 
       RGB longest depth of extinction    r_si2 =    61.8046971569839     
         level of light extinction =           25  ref depth = 
   2527.21691545123       m
    ==>>>   Chlorophyll read in a file
 
    fld_fill : fill data structure with information from namelist namtra_qsr
    ~~~~~~~~
       list of files and frequency (>0: in hours ; <0 in months)
       root filename: ./chlorophyll   variable name: CHLA
          frequency:   -1.00000000000000         time interp:  T    climatology:
   T
          weights:    pairing:    data type: yearly     land/sea mask:
 
 tra_bbc : Bottom Boundary Condition (bbc), apply a Geothermal heating
 ~~~~~~~   
    Namelist nambbc : set bbc parameters
       Apply a geothermal heating at ocean bottom   ln_trabbc     =  T
       type of geothermal flux                      nn_geoflx     =            2
       Constant geothermal flux value               rn_geoflx_cst = 
  8.640000000000000E-002
 
    ==>>>   variable geothermal heat flux
 
    fld_fill : fill data structure with information from namelist nambbc
    ~~~~~~~~
       list of files and frequency (>0: in hours ; <0 in months)
       root filename: ./geothermal_heating.nc   variable name: heatflow
          frequency:   -12.0000000000000         time interp:  F    climatology:
   T
          weights:    pairing:    data type: yearly     land/sea mask:
                     iom_nf90_open ~~~ open existing file: ./geothermal_heating.
 nc in READ mode
                    ---> ./geothermal_heating.nc OK
           read heatflow (rec:      1) in ./geothermal_heating.nc ok
   fld_read: var heatflow kt =        1 (   0.0333 days), Y/M/D = 0001/01/01, record:   0001 (days    0.0000 <->  365.0000)
 
 tra_bbl_init : bottom boundary layer initialisation
 ~~~~~~~~~~~~
        Namelist nambbl : set bbl parameters
           bottom boundary layer flag          ln_trabbl  =  T
           diffusive bbl (=1)   or not (=0)    nn_bbl_ldf =            1
           advective bbl (=1/2) or not (=0)    nn_bbl_adv =            0
           diffusive bbl coefficient           rn_ahtbbl  = 
   1000.00000000000       m2/s
           advective bbl coefficient           rn_gambbl  = 
   10.0000000000000       s
 
 tra_dmp_init : T and S newtonian relaxation
 ~~~~~~~~~~~~
    Namelist namtra_dmp : set relaxation parameters
       Apply relaxation   or not       ln_tradmp   =  T
          mixed layer damping option      nn_zdmp  =            0
          Damping file name               cn_resto = 
 resto.nc                                                                       
                                                                                
                                           
 
    tracer damping as specified by mask
                     iom_nf90_open ~~~ open existing file: resto.nc in READ mode
                    ---> resto.nc OK
           read resto (rec:      1) in resto.nc ok
                     iom_close ~~~ close file: resto.nc ok
 
 tra_adv_init : choice/control of the tracer advection scheme
 ~~~~~~~~~~~~
    Namelist namtra_adv : chose a advection scheme for tracers
       No advection on T & S                     ln_traadv_OFF =  F
       centered scheme                           ln_traadv_cen =  F
             horizontal 2nd/4th order               nn_cen_h   =            2
             vertical   2nd/4th order               nn_cen_v   =            2
       Flux Corrected Transport scheme           ln_traadv_fct =  T
             horizontal 2nd/4th order               nn_fct_h   =            2
             vertical   2nd/4th order               nn_fct_v   =            2
       MUSCL scheme                              ln_traadv_mus =  F
             + upstream scheme near river mouths    ln_mus_ups =  F
       UBS scheme                                ln_traadv_ubs =  F
             vertical   2nd/4th order               nn_ubs_v   =            2
       QUICKEST scheme                           ln_traadv_qck =  F
 
    ==>>>   FCT      scheme is used. Horizontal order:            2 
  Vertical   order:            2
 
 tra_mle_init : mixed layer eddy (MLE) advection acting on tracers
 ~~~~~~~~~~~~~
    Namelist namtra_mle : mixed layer eddy advection applied on tracers
       use mixed layer eddy (MLE, i.e. Fox-Kemper param) (T/F)      ln_mle      
  =  T
          MLE type: =0 standard Fox-Kemper ; =1 new formulation        nn_mle   
  =            1
          magnitude of the MLE (typical value: 0.06 to 0.08)           rn_ce    
  =   6.000000000000000E-002
          scale of ML front (ML radius of deformation) (rn_mle=0)      rn_lf    
  =    5000.00000000000      m
          maximum time scale of MLE                    (rn_mle=0)      rn_time  
  =    172800.000000000      s
          reference latitude (degrees) of MLE coef.    (rn_mle=1)      rn_lat   
  =    20.0000000000000      deg
          space interp. of MLD at u-(v-)pts (0=min,1=averaged,2=max)   nn_mld_uv
  =            0
          =1 no MLE in case of convection ; =0 always MLE              nn_conv  
  =            0
          Density difference used to define ML for FK              rn_rho_c_mle 
  =   1.000000000000000E-002
 
    ==>>>   Mixed Layer Eddy induced transport added to tracer advection
               New formulation
 
       ML buoyancy criteria =   9.558138401559454E-005  m/s2 
       associated ML density criteria defined in zdfmxl = 
  1.000000000000000E-002 kg/m3
 
 tra_ldf_init : lateral tracer diffusive operator
 ~~~~~~~~~~~~
    Namelist namtra_ldf: already read in ldftra module
       see ldf_tra_init report for lateral mixing parameters
 
    ==>>>   Rotated laplacian operator (standard)
 
 dyn_adv_init : choice/control of the momentum advection scheme
 ~~~~~~~~~~~~
    Namelist namdyn_adv : chose a advection formulation & scheme for momentum
       linear dynamics : no momentum advection          ln_dynadv_OFF  =  F
       Vector form: 2nd order centered scheme           ln_dynadv_vec  =  T
          with Hollingsworth scheme (=1) or not (=0)       nn_dynkeg   = 
           0
       flux form: 2nd order centred scheme              ln_dynadv_cen2 =  F
                  3rd order UBS scheme                  ln_dynadv_ubs  =  F
 
    ==>>>   vector form : keg + zad + vor is used
               with Centered standard keg scheme
 
 dyn_vor_init : vorticity term : read namelist and control the consistency
 ~~~~~~~~~~~~
    Namelist namdyn_vor : choice of the vorticity term scheme
       enstrophy conserving scheme                    ln_dynvor_ens =  F
       f-point energy conserving scheme               ln_dynvor_ene =  F
       t-point energy conserving scheme               ln_dynvor_enT =  F
       energy conserving scheme  (een using e3t)      ln_dynvor_eeT =  F
       enstrophy and energy conserving scheme         ln_dynvor_een =  T
          e3f = averaging /4 (=0) or /sum(tmask) (=1)    nn_een_e3f = 
           0
       mixed enstrophy/energy conserving scheme       ln_dynvor_mix =  F
       masked (=T) or unmasked(=F) vorticity          ln_dynvor_msk =  F
 
       change fmask value in the angles (T)           ln_vorlat =  F
 
    ==>>>   vector form dynamics : total vorticity = Coriolis + relative vortici
 ty
 
    ==>>>   energy and enstrophy conserving scheme (EEN)
 
 dyn_ldf_init : Choice of the lateral diffusive operator on dynamics
 ~~~~~~~~~~~~
    Namelist namdyn_ldf: already read in ldfdyn module
       see ldf_dyn_init report for lateral mixing parameters
 
    ==>>>   iso-level laplacian operator
 
 dyn_hpg_init : hydrostatic pressure gradient initialisation
 ~~~~~~~~~~~~
    Namelist namdyn_hpg : choice of hpg scheme
       z-coord. - full steps                             ln_hpg_zco    =  F
       z-coord. - partial steps (interpolation)          ln_hpg_zps    =  F
       s-coord. (standard jacobian formulation)          ln_hpg_sco    =  T
       s-coord. (standard jacobian formulation) for isf  ln_hpg_isf    =  F
       s-coord. (Density Jacobian: Cubic polynomial)     ln_hpg_djc    =  F
       s-coord. (Pressure Jacobian: Cubic polynomial)    ln_hpg_prj    =  F
 
    ==>>>   s-coord. (standard jacobian formulation)
 
 
 dyn_spg_init : choice of the surface pressure gradient scheme
 ~~~~~~~~~~~~
    Namelist : namdyn_spg                    
       Explicit free surface                  ln_dynspg_exp =  F
       Free surface with time splitting       ln_dynspg_ts  =  T
 
    ==>>>   free surface with time splitting scheme
 
 dyn_spg_ts_init : split-explicit free surface
 ~~~~~~~~~~~~~~~
      ln_ts_auto =.true. Automatically set nn_baro 
      Max. courant number allowed:   0.800000000000000     
      ln_bt_av =.true.  ==> Time averaging over nn_baro time steps is on 
      ln_bt_fw=.true.  => Forward integration of barotropic variables 
      Time filter choice, nn_bt_flt:            1
            Boxcar: width = nn_baro
  
      nn_baro =           35
      Barotropic time step [s] is :   164.571428571429     
      Maximum Courant number is   :  0.790417938561387     
      Time diffusion parameter rn_bt_alpha:   0.000000000000000E+000
 
    ==>>>   start from rest: set barotropic values to 0
 
 trc_init : initial set up of the passive tracers
 ~~~~~~~~

 ===>>> : W A R N I N G
         ===============

 Coupling with passive tracers and used of diurnal cycle.
 Computation of a daily mean shortwave for some biogeochemical models
 
 trc_nam_run : read the passive tracer namelists
 ~~~~~~~~~~~
    Namelist : namtrc_run
       time step freq. for passive tracer           nn_dttrc      =            1
       restart  for passive tracer                  ln_rsttr      =  F
       control of time step for passive tracer      nn_rsttr      =            0
       first time step for pass. trac.              nittrc000     =            1
       Use euler integration for TRC (y/n)          ln_top_euler  =  T
 
 trc_nam_trc : read the passive tracer namelists
 ~~~~~~~~~~~
    Namelist : namtrc
       Total number of passive tracers              jptra         =           24
       Total number of BGC tracers                  jp_bgc        =           24
       Simulating PISCES model                      ln_pisces     =  T
       Simulating MY_TRC  model                     ln_my_trc     =  F
       Simulating water mass age                    ln_age        =  F
       Simulating CFC11 passive tracer              ln_cfc11      =  F
       Simulating CFC12 passive tracer              ln_cfc12      =  F
       Simulating SF6 passive tracer                ln_sf6        =  F
       Total number of CFCs tracers                 jp_cfc        =            0
       Simulating C14   passive tracer              ln_c14        =  F
       Read inputs data from file (y/n)             ln_trcdta     =  T
       Damping of passive tracer (y/n)              ln_trcdmp     =  F
       Restoring of tracer on closed seas           ln_trcdmp_clo =  F
 
    ==>>>   Some of the passive tracers are initialised from climatologies 
 
    ==>>>   Passive Tracer  time step    rdttrc = nn_dttrc*rdt = 
   5760.00000000000     
 
 
 
 trc_nam_pisces : read PISCES namelist
 ~~~~~~~~~~~~~~
    Namelist : nampismod 
       Flag to use LOBSTER model            ln_p2z      =  F
       Flag to use PISCES standard model    ln_p4z      =  T
       Flag to use PISCES quota    model    ln_p5z      =  F
       Flag to ligand                       ln_ligand   =  F
       Flag to use sediment                 ln_sediment =  F
 
    ==>>>   PISCES STANDARD model is used
 
 p4z_ini :   PISCES biochemical model initialisation
 ~~~~~~~
 
 p4z_sms_init : PISCES initialization
 ~~~~~~~~~~~~
    Namelist : nampisbio
       frequency for the biology                 nrdttrc     =           1
       POC sinking speed                         wsbio       =
   2.00000000000000     
       half saturation constant for mortality    xkmort      =
  2.000000000000000E-007
       Fe/C in zooplankton                       ferat3      =
  1.000000000000000E-005
       Big particles sinking speed               wsbio2      =
   50.0000000000000     
       Big particles maximum sinking speed       wsbio2max   =
   50.0000000000000     
       Big particles sinking speed length scale  wsbio2scale =
   5000.00000000000     
 
    Namelist : nampisdmp --- relaxation to GLODAP
       Relaxation of tracer to glodap mean value   ln_pisdmp = T
       Frequency of Relaxation                     nn_pisdmp =        5475
 
    Namelist : nampismass  --- mass conservation checking
       Flag to check mass conservation of NO3/Si/TALK   ln_check_mass =  F
 
  Level corresponding to 100m depth           11
 
 
 p4z_opt_init : 
 ~~~~~~~~~~~~ 
    Namelist : nampisopt 
       PAR as a variable fraction of SW     ln_varpar      =  T
       Default value for the PAR fraction   parlux         = 
  0.430000000000000     
 
    ==>>>   initialize variable par fraction (ln_varpar=T)
 
 p4z_opt_init : Variable PAR fraction
 ~~~~~~~~~~~~
    fld_fill : fill data structure with information from namelist nampisopt
    ~~~~~~~~
       list of files and frequency (>0: in hours ; <0 in months)
       root filename: ./par.orca   variable name: fr_par
          frequency:    24.0000000000000         time interp:  T    climatology:
   T
          weights:    pairing:    data type: yearly     land/sea mask:
                     iom_nf90_open ~~~ open existing file: par.orca.nc in READ m
 ode
                    ---> par.orca.nc OK
 
    trc_oce_rgb : Initialisation of the optical look-up table
    ~~~~~~~~~~~ 
       RGB longest depth of extinction    r_si2 =    61.8046971569839     
         level of light extinction =           25  ref depth = 
   2527.21691545123       m
 
 p4z_lim_init : initialization of nutrient limitations
 ~~~~~~~~~~~~
    Namelist : namp4zlim
       mean rainratio                           caco3r    = 
  0.300000000000000     
       NO3 half saturation of nanophyto         concnno3  = 
  1.000000000000000E-006
       NO3 half saturation of diatoms           concdno3  = 
  3.000000000000000E-006
       NH4 half saturation for phyto            concnnh4  = 
  1.000000000000000E-007
       NH4 half saturation for diatoms          concdnh4  = 
  3.000000000000000E-007
       half saturation constant for Si uptake   xksi1     = 
  2.000000000000000E-006
       half saturation constant for Si/C        xksi2     = 
  2.000000000000000E-005
       half-sat. of DOC remineralization        xkdoc     = 
  4.170000000000000E-004
       Iron half saturation for nanophyto       concnfer  = 
  1.000000000000000E-009
       Iron half saturation for diatoms         concdfer  = 
  3.000000000000000E-009
       size ratio for nanophytoplankton         xsizern   = 
   3.00000000000000     
       size ratio for diatoms                   xsizerd   = 
   3.00000000000000     
       NO3 half saturation of bacteria          concbno3  = 
  2.000000000000000E-007
       NH4 half saturation for bacteria         concbnh4  = 
  2.000000000000000E-008
       Minimum size criteria for diatoms        xsizedia  = 
  1.000000000000000E-006
       Minimum size criteria for nanophyto      xsizephy  = 
  1.000000000000000E-006
       Fe half saturation for bacteria          concbfe   = 
  9.999999999999999E-012
       halk saturation constant for anoxia       oxymin   =
  1.000000000000000E-006
       optimal Fe quota for nano.               qnfelim   = 
  7.000000000000000E-006
       Optimal Fe quota for diatoms             qdfelim   = 
  7.000000000000000E-006
 
 p4z_prod_init : phytoplankton growth
 ~~~~~~~~~~~~~
    Namelist : namp4zprod
       mean Si/C ratio                           grosip       =
  0.159000000000000     
       P-I slope                                 pislopen     =
   2.00000000000000     
       Acclimation factor to low light           xadap        =
  0.000000000000000E+000
       excretion ratio of nanophytoplankton      excretn      =
  5.000000000000000E-002
       excretion ratio of diatoms                excretd      =
  5.000000000000000E-002
       basal respiration in phytoplankton        bresp        =
  3.300000000000000E-002
       Maximum Chl/C in phytoplankton            chlcmin      =
  4.000000000000000E-003
       P-I slope  for diatoms                    pisloped     =
   2.00000000000000     
       Minimum Chl/C in nanophytoplankton        chlcnm       =
  3.300000000000000E-002
       Minimum Chl/C in diatoms                  chlcdm       =
  5.000000000000000E-002
       Maximum Fe/C in nanophytoplankton         fecnm        =
  4.000000000000000E-005
       Minimum Fe/C in diatoms                   fecdm        =
  4.000000000000000E-005
 
 p4z_sbc_init : initialization of the external sources of nutrients 
 ~~~~~~~~~~~~ 
    Namelist : nampissbc 
       dust input from the atmosphere           ln_dust     =  T
       Variable solubility of iron input        ln_solub    =  T
       river input of nutrients                 ln_river    =  T
       atmospheric deposition of n              ln_ndepo    =  T
       Fe input from sediments                  ln_ironsed  =  T
       Fe input from seaice                     ln_ironice  =  T
       fe input from hydrothermal vents         ln_hydrofe  =  T
       coastal release of iron                  sedfeinput  = 
  2.000000000000000E-009
       distance off the coast                   distcoast   = 
   5000.00000000000     
       solubility of the dust                   dustsolub   = 
  2.000000000000000E-002
       Mineral Fe content of the dust           mfrac       = 
  3.500000000000000E-002
       Iron concentration in sea ice            icefeinput  = 
  1.500000000000000E-008
       sinking speed of the dust                wdust       = 
   2.00000000000000     
       nitrogen fixation rate                   nitrfix     = 
  1.000000000000000E-007
       nitrogen fixation sensitivty to light    diazolight  = 
   50.0000000000000     
       Fe half-saturation cste for diazotrophs  concfediaz  = 
  1.000000000000000E-010
       Fe to 3He ratio assumed for vent iron supply hratio  = 
   10000000.0000000     
    ==>>>   ln_ironice incompatible with nn_ice_tr =            0
            Specify your sea ice iron concentration in nampisice instead 
            ln_ironice is forced to .FALSE. 
     initialize dust input from atmosphere 
     ~~~~~~~~~~~~~~~~~~~~~~~~~~~~~~~~~~~~~ 
 
 p4z_sed_init : Atmospheric dust deposition
 ~~~~~~~~~~~~
    fld_fill : fill data structure with information from namelist nampissed
    ~~~~~~~~
       list of files and frequency (>0: in hours ; <0 in months)
       root filename: ./dust.orca   variable name: dust
          frequency:   -1.00000000000000         time interp:  T    climatology:
   T
          weights:    pairing:    data type: yearly     land/sea mask:
                     iom_nf90_open ~~~ open existing file: dust.orca.nc in READ 
 mode
                    ---> dust.orca.nc OK
 
    ==>>>   ll_solub=T , initialize variable solubility of Fe 
 
 p4z_sed_init : Solubility of atm. iron
 ~~~~~~~~~~~~
    fld_fill : fill data structure with information from namelist nampissed
    ~~~~~~~~
       list of files and frequency (>0: in hours ; <0 in months)
       root filename: ./solubility.orca   variable name: solubility1
          frequency:   -12.0000000000000         time interp:  F    climatology:
   T
          weights:    pairing:    data type: yearly     land/sea mask:
                     iom_nf90_open ~~~ open existing file: solubility.orca.nc in
  READ mode
                    ---> solubility.orca.nc OK
                     iom_close ~~~ close file: solubility.orca.nc ok
 
 p4z_sed_init : Input from river
 ~~~~~~~~~~~~
    fld_fill : fill data structure with information from namelist nampissed
    ~~~~~~~~
       list of files and frequency (>0: in hours ; <0 in months)
       root filename: ./river.orca   variable name: riverdic
          frequency:    120.000000000000         time interp:  T    climatology:
   T
[...]
 r_arr_** written ok
           iom_nf90_rp0123d, file: ./ORCA2_00000045_restart_trc_0000.nc, var: qs
 r_arr_** written ok
           iom_nf90_rp0123d, file: ./ORCA2_00000045_restart_trc_0000.nc, var: qs
 r_arr_** written ok
           iom_nf90_rp0123d, file: ./ORCA2_00000045_restart_trc_0000.nc, var: qs
 r_arr_** written ok
           iom_nf90_rp0123d, file: ./ORCA2_00000045_restart_trc_0000.nc, var: qs
 r_arr_** written ok
           iom_nf90_rp0123d, file: ./ORCA2_00000045_restart_trc_0000.nc, var: qs
 r_arr_** written ok
           iom_nf90_rp0123d, file: ./ORCA2_00000045_restart_trc_0000.nc, var: qs
 r_arr_** written ok
           iom_nf90_rp0123d, file: ./ORCA2_00000045_restart_trc_0000.nc, var: qs
 r_arr_** written ok
           iom_nf90_rp0123d, file: ./ORCA2_00000045_restart_trc_0000.nc, var: qs
 r_arr_** written ok
           iom_nf90_rp0123d, file: ./ORCA2_00000045_restart_trc_0000.nc, var: qs
 r_arr_** written ok
           iom_nf90_rp0123d, file: ./ORCA2_00000045_restart_trc_0000.nc, var: qs
 r_arr_** written ok
           iom_nf90_rp0123d, file: ./ORCA2_00000045_restart_trc_0000.nc, var: qs
 r_arr_** written ok
           iom_nf90_rp0123d, file: ./ORCA2_00000045_restart_trc_0000.nc, var: qs
 r_arr_** written ok
           iom_nf90_rp0123d, file: ./ORCA2_00000045_restart_trc_0000.nc, var: qs
 r_arr_** written ok
           iom_nf90_rp0123d, file: ./ORCA2_00000045_restart_trc_0000.nc, var: qs
 r_arr_** written ok
           iom_nf90_rp0123d, file: ./ORCA2_00000045_restart_trc_0000.nc, var: qs
 r_arr_** written ok
           iom_nf90_rp0123d, file: ./ORCA2_00000045_restart_trc_0000.nc, var: qs
 r_arr_** written ok
           iom_nf90_rp0123d, file: ./ORCA2_00000045_restart_trc_0000.nc, var: qs
 r_arr_** written ok
           iom_nf90_rp0123d, file: ./ORCA2_00000045_restart_trc_0000.nc, var: qs
 r_arr_** written ok
           iom_nf90_rp0123d, file: ./ORCA2_00000045_restart_trc_0000.nc, var: qs
 r_arr_** written ok
           iom_nf90_rp0123d, file: ./ORCA2_00000045_restart_trc_0000.nc, var: qs
 r_arr_** written ok
           iom_nf90_rp0123d, file: ./ORCA2_00000045_restart_trc_0000.nc, var: qs
 r_arr_** written ok
           iom_nf90_rp0123d, file: ./ORCA2_00000045_restart_trc_0000.nc, var: qs
 r_arr_** written ok
           iom_nf90_rp0123d, file: ./ORCA2_00000045_restart_trc_0000.nc, var: qs
 r_arr_** written ok
           iom_nf90_rp0123d, file: ./ORCA2_00000045_restart_trc_0000.nc, var: qs
 r_arr_** written ok
           iom_nf90_rp0123d, file: ./ORCA2_00000045_restart_trc_0000.nc, var: qs
 r_arr_** written ok
           iom_nf90_rp0123d, file: ./ORCA2_00000045_restart_trc_0000.nc, var: qs
 r_arr_** written ok
           iom_nf90_rp0123d, file: ./ORCA2_00000045_restart_trc_0000.nc, var: qs
 r_arr_** written ok
           iom_nf90_rp0123d, file: ./ORCA2_00000045_restart_trc_0000.nc, var: qs
 r_arr_** written ok
           iom_nf90_rp0123d, file: ./ORCA2_00000045_restart_trc_0000.nc, var: qs
 r_arr_** written ok
           iom_nf90_rp0123d, file: ./ORCA2_00000045_restart_trc_0000.nc, var: qs
 r_arr_** written ok
           iom_nf90_rp0123d, file: ./ORCA2_00000045_restart_trc_0000.nc, var: qs
 r_arr_** written ok
           iom_nf90_rp0123d, file: ./ORCA2_00000045_restart_trc_0000.nc, var: qs
 r_arr_** written ok
           iom_nf90_rp0123d, file: ./ORCA2_00000045_restart_trc_0000.nc, var: qs
 r_arr_** written ok
           iom_nf90_rp0123d, file: ./ORCA2_00000045_restart_trc_0000.nc, var: qs
 r_arr_** written ok
           iom_nf90_rp0123d, file: ./ORCA2_00000045_restart_trc_0000.nc, var: qs
 r_arr_** written ok
           iom_nf90_rp0123d, file: ./ORCA2_00000045_restart_trc_0000.nc, var: qs
 r_arr_** written ok
           iom_nf90_rp0123d, file: ./ORCA2_00000045_restart_trc_0000.nc, var: qs
 r_arr_** written ok
           iom_nf90_rp0123d, file: ./ORCA2_00000045_restart_trc_0000.nc, var: qs
 r_arr_** written ok
           iom_nf90_rp0123d, file: ./ORCA2_00000045_restart_trc_0000.nc, var: qs
 r_arr_** written ok
           iom_nf90_rp0123d, file: ./ORCA2_00000045_restart_trc_0000.nc, var: qs
 r_arr_** written ok
           iom_nf90_rp0123d, file: ./ORCA2_00000045_restart_trc_0000.nc, var: qs
 r_arr_** written ok
           iom_nf90_rp0123d, file: ./ORCA2_00000045_restart_trc_0000.nc, var: qs
 r_arr_** written ok
           iom_nf90_rp0123d, file: ./ORCA2_00000045_restart_trc_0000.nc, var: qs
 r_arr_** written ok
           iom_nf90_rp0123d, file: ./ORCA2_00000045_restart_trc_0000.nc, var: qs
 r_arr_** written ok
           iom_nf90_rp0123d, file: ./ORCA2_00000045_restart_trc_0000.nc, var: qs
 r_arr_** written ok
           iom_nf90_rp0123d, file: ./ORCA2_00000045_restart_trc_0000.nc, var: qs
 r_arr_** written ok
           iom_nf90_rp0123d, file: ./ORCA2_00000045_restart_trc_0000.nc, var: qs
 r_arr_** written ok
           iom_nf90_rp0123d, file: ./ORCA2_00000045_restart_trc_0000.nc, var: qs
 r_mean written ok
 
 trc_wri : write the TOP restart file (NetCDF) at it=           45  date= 
       10103
 ~~~~~~~
           iom_nf90_rp0123d, file: ./ORCA2_00000045_restart_trc_0000.nc, var: kt
  written ok
           iom_nf90_rp0123d, file: ./ORCA2_00000045_restart_trc_0000.nc, var: nd
 astp written ok
           iom_nf90_rp0123d, file: ./ORCA2_00000045_restart_trc_0000.nc, var: ad
 atrj written ok
           iom_nf90_rp0123d, file: ./ORCA2_00000045_restart_trc_0000.nc, var: nt
 ime written ok
   fld_read: var dust kt =       45 (   2.9667 days), Y/M/D = 0001/01/03, records b/a:   0012/  0001 (days  -15.5000/  15.5000)
       it_offset is :            0
                     iom_close ~~~ close file: ./dust.orca.nc ok
   fld_read: var riverdic kt =       45 (   2.9667 days), Y/M/D = 0001/01/03, records b/a:   0001/  0002 (days    2.5000/   7.5000)
       it_offset is :            0
                     iom_close ~~~ close file: ./river.orca.nc ok
   fld_read: var riverdoc kt =       45 (   2.9667 days), Y/M/D = 0001/01/03, records b/a:   0001/  0002 (days    2.5000/   7.5000)
       it_offset is :            0
                     iom_close ~~~ close file: ./river.orca.nc ok
   fld_read: var riverdin kt =       45 (   2.9667 days), Y/M/D = 0001/01/03, records b/a:   0001/  0002 (days    2.5000/   7.5000)
       it_offset is :            0
                     iom_close ~~~ close file: ./river.orca.nc ok
   fld_read: var riverdon kt =       45 (   2.9667 days), Y/M/D = 0001/01/03, records b/a:   0001/  0002 (days    2.5000/   7.5000)
       it_offset is :            0
                     iom_close ~~~ close file: ./river.orca.nc ok
   fld_read: var riverdip kt =       45 (   2.9667 days), Y/M/D = 0001/01/03, records b/a:   0001/  0002 (days    2.5000/   7.5000)
       it_offset is :            0
                     iom_close ~~~ close file: ./river.orca.nc ok
   fld_read: var riverdop kt =       45 (   2.9667 days), Y/M/D = 0001/01/03, records b/a:   0001/  0002 (days    2.5000/   7.5000)
       it_offset is :            0
                     iom_close ~~~ close file: ./river.orca.nc ok
   fld_read: var riverdsi kt =       45 (   2.9667 days), Y/M/D = 0001/01/03, records b/a:   0001/  0002 (days    2.5000/   7.5000)
       it_offset is :            0
                     iom_close ~~~ close file: ./river.orca.nc ok
   fld_read: var fr_par kt =       45 (   2.9667 days), Y/M/D = 0001/01/03, records b/a:   0003/  0004 (days    2.5000/   3.5000)
       it_offset is :            0
                     iom_close ~~~ close file: ./par.orca.nc ok
 
 p4z_rst : write pisces restart file  kt =          45
 ~~~~~~~
           iom_nf90_rp0123d, file: ./ORCA2_00000045_restart_trc_0000.nc, var: PH
  written ok
           iom_nf90_rp0123d, file: ./ORCA2_00000045_restart_trc_0000.nc, var: Si
 licalim written ok
           iom_nf90_rp0123d, file: ./ORCA2_00000045_restart_trc_0000.nc, var: Si
 licamax written ok
           iom_nf90_rp0123d, file: ./ORCA2_00000045_restart_trc_0000.nc, var: tc
 flxcum written ok
           iom_nf90_rp0123d, file: ./ORCA2_00000045_restart_trc_0000.nc, var: rd
 ttrc1 written ok
           iom_nf90_rp0123d, file: ./ORCA2_00000045_restart_trc_0000.nc, var: TR
 NDIC written ok
           iom_nf90_rp0123d, file: ./ORCA2_00000045_restart_trc_0000.nc, var: TR
 NAlkalini written ok
           iom_nf90_rp0123d, file: ./ORCA2_00000045_restart_trc_0000.nc, var: TR
 NO2 written ok
           iom_nf90_rp0123d, file: ./ORCA2_00000045_restart_trc_0000.nc, var: TR
 NCaCO3 written ok
           iom_nf90_rp0123d, file: ./ORCA2_00000045_restart_trc_0000.nc, var: TR
 NPO4 written ok
           iom_nf90_rp0123d, file: ./ORCA2_00000045_restart_trc_0000.nc, var: TR
 NPOC written ok
           iom_nf90_rp0123d, file: ./ORCA2_00000045_restart_trc_0000.nc, var: TR
 NSi written ok
           iom_nf90_rp0123d, file: ./ORCA2_00000045_restart_trc_0000.nc, var: TR
 NPHY written ok
           iom_nf90_rp0123d, file: ./ORCA2_00000045_restart_trc_0000.nc, var: TR
 NZOO written ok
           iom_nf90_rp0123d, file: ./ORCA2_00000045_restart_trc_0000.nc, var: TR
 NDOC written ok
           iom_nf90_rp0123d, file: ./ORCA2_00000045_restart_trc_0000.nc, var: TR
 NPHY2 written ok
           iom_nf90_rp0123d, file: ./ORCA2_00000045_restart_trc_0000.nc, var: TR
 NZOO2 written ok
           iom_nf90_rp0123d, file: ./ORCA2_00000045_restart_trc_0000.nc, var: TR
 NDSi written ok
           iom_nf90_rp0123d, file: ./ORCA2_00000045_restart_trc_0000.nc, var: TR
 NFer written ok
           iom_nf90_rp0123d, file: ./ORCA2_00000045_restart_trc_0000.nc, var: TR
 NBFe written ok
           iom_nf90_rp0123d, file: ./ORCA2_00000045_restart_trc_0000.nc, var: TR
 NGOC written ok
           iom_nf90_rp0123d, file: ./ORCA2_00000045_restart_trc_0000.nc, var: TR
 NSFe written ok
           iom_nf90_rp0123d, file: ./ORCA2_00000045_restart_trc_0000.nc, var: TR
 NDFe written ok
           iom_nf90_rp0123d, file: ./ORCA2_00000045_restart_trc_0000.nc, var: TR
 NGSi written ok
           iom_nf90_rp0123d, file: ./ORCA2_00000045_restart_trc_0000.nc, var: TR
 NNFe written ok
           iom_nf90_rp0123d, file: ./ORCA2_00000045_restart_trc_0000.nc, var: TR
 NNCHL written ok
           iom_nf90_rp0123d, file: ./ORCA2_00000045_restart_trc_0000.nc, var: TR
 NDCHL written ok
           iom_nf90_rp0123d, file: ./ORCA2_00000045_restart_trc_0000.nc, var: TR
 NNO3 written ok
           iom_nf90_rp0123d, file: ./ORCA2_00000045_restart_trc_0000.nc, var: TR
 NNH4 written ok
           iom_nf90_rp0123d, file: ./ORCA2_00000045_restart_trc_0000.nc, var: TR
 BDIC written ok
           iom_nf90_rp0123d, file: ./ORCA2_00000045_restart_trc_0000.nc, var: TR
 BAlkalini written ok
           iom_nf90_rp0123d, file: ./ORCA2_00000045_restart_trc_0000.nc, var: TR
 BO2 written ok
           iom_nf90_rp0123d, file: ./ORCA2_00000045_restart_trc_0000.nc, var: TR
 BCaCO3 written ok
           iom_nf90_rp0123d, file: ./ORCA2_00000045_restart_trc_0000.nc, var: TR
 BPO4 written ok
           iom_nf90_rp0123d, file: ./ORCA2_00000045_restart_trc_0000.nc, var: TR
 BPOC written ok
           iom_nf90_rp0123d, file: ./ORCA2_00000045_restart_trc_0000.nc, var: TR
 BSi written ok
           iom_nf90_rp0123d, file: ./ORCA2_00000045_restart_trc_0000.nc, var: TR
 BPHY written ok
           iom_nf90_rp0123d, file: ./ORCA2_00000045_restart_trc_0000.nc, var: TR
 BZOO written ok
           iom_nf90_rp0123d, file: ./ORCA2_00000045_restart_trc_0000.nc, var: TR
 BDOC written ok
           iom_nf90_rp0123d, file: ./ORCA2_00000045_restart_trc_0000.nc, var: TR
 BPHY2 written ok
           iom_nf90_rp0123d, file: ./ORCA2_00000045_restart_trc_0000.nc, var: TR
 BZOO2 written ok
           iom_nf90_rp0123d, file: ./ORCA2_00000045_restart_trc_0000.nc, var: TR
 BDSi written ok
           iom_nf90_rp0123d, file: ./ORCA2_00000045_restart_trc_0000.nc, var: TR
 BFer written ok
           iom_nf90_rp0123d, file: ./ORCA2_00000045_restart_trc_0000.nc, var: TR
 BBFe written ok
           iom_nf90_rp0123d, file: ./ORCA2_00000045_restart_trc_0000.nc, var: TR
 BGOC written ok
           iom_nf90_rp0123d, file: ./ORCA2_00000045_restart_trc_0000.nc, var: TR
 BSFe written ok
           iom_nf90_rp0123d, file: ./ORCA2_00000045_restart_trc_0000.nc, var: TR
 BDFe written ok
           iom_nf90_rp0123d, file: ./ORCA2_00000045_restart_trc_0000.nc, var: TR
 BGSi written ok
           iom_nf90_rp0123d, file: ./ORCA2_00000045_restart_trc_0000.nc, var: TR
 BNFe written ok
           iom_nf90_rp0123d, file: ./ORCA2_00000045_restart_trc_0000.nc, var: TR
 BNCHL written ok
           iom_nf90_rp0123d, file: ./ORCA2_00000045_restart_trc_0000.nc, var: TR
 BDCHL written ok
           iom_nf90_rp0123d, file: ./ORCA2_00000045_restart_trc_0000.nc, var: TR
 BNO3 written ok
           iom_nf90_rp0123d, file: ./ORCA2_00000045_restart_trc_0000.nc, var: TR
 BNH4 written ok
 
            ----TRACER STAT----             
 
 tracer nb : 1    name :       DIC    mean :  0.2310759877E-02    min :  0.1828414641E-02    max :  0.2474577221E-02    drift : -0.8102779559E-03 %
 tracer nb : 2    name :  Alkalini    mean :  0.2425956014E-02    min :  0.2209893998E-02    max :  0.2522468798E-02    drift : -0.1149813257E+00 %
 tracer nb : 3    name :        O2    mean :  0.1750106676E-03    min :  0.1983529049E-05    max :  0.4426733588E-03    drift : -0.1138744670E-03 %
 tracer nb : 4    name :     CaCO3    mean :  0.9271281708E-08    min :  0.0000000000E+00    max :  0.1007035220E-07    drift : -0.7286347352E+01 %
 tracer nb : 5    name :       PO4    mean :  0.2641270641E-03    min :  0.3587300936E-06    max :  0.4526273524E-03    drift :  0.2633234865E+00 %
 tracer nb : 6    name :       POC    mean :  0.1094450897E-07    min :  0.4159066786E-08    max :  0.1296731842E-05    drift :  0.9446076093E+01 %
 tracer nb : 7    name :        Si    mean :  0.9150843844E-04    min :  0.5556725409E-07    max :  0.2546054902E-03    drift :  0.2744733554E+01 %
 tracer nb : 8    name :       PHY    mean :  0.1007985188E-07    min :  0.9773699617E-08    max :  0.6725899447E-07    drift :  0.7994272745E+00 %
 tracer nb : 9    name :       ZOO    mean :  0.9943372909E-08    min :  0.6773759535E-08    max :  0.1052634176E-07    drift : -0.5653747749E+00 %
 tracer nb :10    name :       DOC    mean :  0.2572223958E-05    min :  0.0000000000E+00    max :  0.1946759082E-03    drift : -0.9769951734E-01 %
 tracer nb :11    name :      PHY2    mean :  0.1002146040E-07    min :  0.9749615705E-08    max :  0.4876228716E-07    drift :  0.2155071575E+00 %
 tracer nb :12    name :      ZOO2    mean :  0.1000032523E-07    min :  0.9369434387E-08    max :  0.1055496493E-07    drift :  0.4153598741E-02 %
 tracer nb :13    name :       DSi    mean :  0.1507395142E-08    min :  0.1468672846E-08    max :  0.1468169641E-07    drift :  0.4939151441E+00 %
 tracer nb :14    name :       Fer    mean :  0.6165173704E-09    min :  0.9760942386E-11    max :  0.6653338993E-08    drift :  0.4111252718E-01 %
 tracer nb :15    name :       BFe    mean :  0.4672341025E-13    min :  0.5840077079E-16    max :  0.8745346423E-13    drift : -0.6552337320E+01 %
 tracer nb :16    name :       GOC    mean :  0.9084529566E-08    min :  0.0000000000E+00    max :  0.1007166267E-07    drift : -0.9153885606E+01 %
 tracer nb :17    name :       SFe    mean :  0.1122022339E-12    min :  0.2941226186E-13    max :  0.6896496746E-11    drift :  0.1244064901E+03 %
 tracer nb :18    name :       DFe    mean :  0.6768216755E-13    min :  0.4848708144E-13    max :  0.1871445367E-11    drift :  0.3536555506E+02 %
 tracer nb :19    name :       GSi    mean :  0.1957666405E-11    min :  0.5079504937E-13    max :  0.2234299809E-10    drift :  0.3815368097E+04 %
 tracer nb :20    name :       NFe    mean :  0.7636975154E-13    min :  0.4731310467E-13    max :  0.2733157112E-11    drift :  0.5274087964E+02 %
 tracer nb :21    name :      NCHL    mean :  0.2204974910E-08    min :  0.2130893784E-08    max :  0.2362156197E-07    drift :  0.1062260851E+01 %
 tracer nb :22    name :      DCHL    mean :  0.2189396244E-08    min :  0.2126703571E-08    max :  0.2042057826E-07    drift :  0.3482322375E+00 %
 tracer nb :23    name :       NO3    mean :  0.2356093036E-03    min :  0.5445631798E-08    max :  0.3993117960E-03    drift :  0.8525104082E+00 %
 tracer nb :24    name :       NH4    mean :  0.1106476254E-07    min :  0.8469853872E-08    max :  0.3835916281E-06    drift :  0.1064862262E+02 %
 
                     iom_close ~~~ close file: ./ORCA2_00000045_restart_trc_0000
 .nc ok
           iom_nf90_rp0123d, file: ./ORCA2_00000045_restart_0000.nc, var: sbc_hc
 _b written ok
           iom_nf90_rp0123d, file: ./ORCA2_00000045_restart_0000.nc, var: sbc_sc
 _b written ok
   fld_read: var CHLA kt =       45 (   2.9667 days), Y/M/D = 0001/01/03, records b/a:   0012/  0001 (days  -15.5000/  15.5000)
       it_offset is :            0
                     iom_close ~~~ close file: ./chlorophyll.nc ok
           iom_nf90_rp0123d, file: ./ORCA2_00000045_restart_0000.nc, var: qsr_hc
 _b written ok
           iom_nf90_rp0123d, file: ./ORCA2_00000045_restart_0000.nc, var: fraqsr
 _1lev written ok
   fld_read: var votemper kt =       45 (   2.9667 days), Y/M/D = 0001/01/03, records b/a:   0012/  0001 (days  -15.5000/  15.5000)
       it_offset is :            0
                     iom_close ~~~ close file: ./data_1m_potential_temperature_n
 omask.nc ok
   fld_read: var vosaline kt =       45 (   2.9667 days), Y/M/D = 0001/01/03, records b/a:   0012/  0001 (days  -15.5000/  15.5000)
       it_offset is :            0
                     iom_close ~~~ close file: ./data_1m_salinity_nomask.nc ok
 ---- dom_vvl_rst ----
           iom_nf90_rp0123d, file: ./ORCA2_00000045_restart_0000.nc, var: e3t_b 
 written ok
           iom_nf90_rp0123d, file: ./ORCA2_00000045_restart_0000.nc, var: e3t_n 
 written ok
           iom_nf90_rp0123d, file: ./ORCA2_00000045_restart_0000.nc, var: rdt wr
 itten ok
           iom_nf90_rp0123d, file: ./ORCA2_00000045_restart_0000.nc, var: ub wri
 tten ok
           iom_nf90_rp0123d, file: ./ORCA2_00000045_restart_0000.nc, var: vb wri
 tten ok
           iom_nf90_rp0123d, file: ./ORCA2_00000045_restart_0000.nc, var: tb wri
 tten ok
           iom_nf90_rp0123d, file: ./ORCA2_00000045_restart_0000.nc, var: sb wri
 tten ok
           iom_nf90_rp0123d, file: ./ORCA2_00000045_restart_0000.nc, var: sshb w
 ritten ok
           iom_nf90_rp0123d, file: ./ORCA2_00000045_restart_0000.nc, var: un wri
 tten ok
           iom_nf90_rp0123d, file: ./ORCA2_00000045_restart_0000.nc, var: vn wri
 tten ok
           iom_nf90_rp0123d, file: ./ORCA2_00000045_restart_0000.nc, var: tn wri
 tten ok
           iom_nf90_rp0123d, file: ./ORCA2_00000045_restart_0000.nc, var: sn wri
 tten ok
           iom_nf90_rp0123d, file: ./ORCA2_00000045_restart_0000.nc, var: sshn w
 ritten ok
           iom_nf90_rp0123d, file: ./ORCA2_00000045_restart_0000.nc, var: rhop w
 ritten ok
                     iom_close ~~~ close file: ./ORCA2_00000045_restart_0000.nc 
 ok
icebergs: icb_end complete     1

AAAAAAAA

                     iom_close ~~~ close file: ./geothermal_heating.nc ok
                     iom_close ~~~ close file: par.orca.nc ok
                     iom_close ~~~ close file: dust.orca.nc ok
                     iom_close ~~~ close file: ndeposition.orca.nc ok
                     iom_close ~~~ close file: ./solubility.orca.nc ok
                     iom_close ~~~ close file: ./ndeposition.orca.nc ok
                     iom_close ~~~ close file: ./data_DIC_nomask.nc ok
                     iom_close ~~~ close file: ./data_Alkalini_nomask.nc ok
                     iom_close ~~~ close file: ./data_O2_nomask.nc ok
                     iom_close ~~~ close file: ./data_PO4_nomask.nc ok
                     iom_close ~~~ close file: ./data_Si_nomask.nc ok
                     iom_close ~~~ close file: ./data_DOC_nomask.nc ok
                     iom_close ~~~ close file: ./data_Fer_nomask.nc ok
                     iom_close ~~~ close file: ./data_NO3_nomask.nc ok
